3D Atomistic (1 1 0)
  MatStudio         3D                             0

 46155  0  0  0  0  0  0  0  0999 V2000
    0.0000    0.0000   -0.0000 Pt  0  0  0  0  0  0  0  0  0  0
    0.0000    0.0000    3.9242 Pt  0  0  0  0  0  0  0  0  0  0
    5.8863   -7.8484    1.9621 Pt  0  0  0  0  0  0  0  0  0  0
    5.8863   -5.8863   -0.0000 Pt  0  0  0  0  0  0  0  0  0  0
    5.8863   -7.8484    5.8863 Pt  0  0  0  0  0  0  0  0  0  0
    5.8863   -5.8863    3.9242 Pt  0  0  0  0  0  0  0  0  0  0
    3.9242   -7.8484    3.9242 Pt  0  0  0  0  0  0  0  0  0  0
    3.9242   -7.8484   -0.0000 Pt  0  0  0  0  0  0  0  0  0  0
    0.0000   -5.8863    1.9621 Pt  0  0  0  0  0  0  0  0  0  0
    1.9621   -7.8484    1.9621 Pt  0  0  0  0  0  0  0  0  0  0
    1.9621   -5.8863   -0.0000 Pt  0  0  0  0  0  0  0  0  0  0
    0.0000   -1.9621    1.9621 Pt  0  0  0  0  0  0  0  0  0  0
    1.9621   -1.9621   -0.0000 Pt  0  0  0  0  0  0  0  0  0  0
    0.0000   -5.8863    5.8863 Pt  0  0  0  0  0  0  0  0  0  0
    1.9621   -7.8484    5.8863 Pt  0  0  0  0  0  0  0  0  0  0
    0.0000   -1.9621    5.8863 Pt  0  0  0  0  0  0  0  0  0  0
    0.0000   -3.9242    3.9242 Pt  0  0  0  0  0  0  0  0  0  0
    1.9621   -3.9242    5.8863 Pt  0  0  0  0  0  0  0  0  0  0
    1.9621   -1.9621    3.9242 Pt  0  0  0  0  0  0  0  0  0  0
    1.9621   -5.8863    3.9242 Pt  0  0  0  0  0  0  0  0  0  0
    0.0000   -3.9242   -0.0000 Pt  0  0  0  0  0  0  0  0  0  0
    1.9621   -3.9242    1.9621 Pt  0  0  0  0  0  0  0  0  0  0
    3.9242   -5.8863    5.8863 Pt  0  0  0  0  0  0  0  0  0  0
    3.9242   -5.8863    1.9621 Pt  0  0  0  0  0  0  0  0  0  0
    3.9242   -3.9242   -0.0000 Pt  0  0  0  0  0  0  0  0  0  0
    3.9242   -3.9242    3.9242 Pt  0  0  0  0  0  0  0  0  0  0
   -1.9621   -1.9621   -0.0000 Pt  0  0  0  0  0  0  0  0  0  0
   -1.9621   -3.9242    1.9621 Pt  0  0  0  0  0  0  0  0  0  0
    3.9242   -9.8105    1.9621 Pt  0  0  0  0  0  0  0  0  0  0
    3.9242   -9.8105    5.8863 Pt  0  0  0  0  0  0  0  0  0  0
   -1.9621   -3.9242    5.8863 Pt  0  0  0  0  0  0  0  0  0  0
   -1.9621   -1.9621    3.9242 Pt  0  0  0  0  0  0  0  0  0  0
    0.0000    0.0000    7.8484 Pt  0  0  0  0  0  0  0  0  0  0
    5.8863   -5.8863    7.8484 Pt  0  0  0  0  0  0  0  0  0  0
    3.9242   -7.8484    7.8484 Pt  0  0  0  0  0  0  0  0  0  0
    1.9621   -5.8863    7.8484 Pt  0  0  0  0  0  0  0  0  0  0
    1.9621   -1.9621    7.8484 Pt  0  0  0  0  0  0  0  0  0  0
    0.0000   -3.9242    7.8484 Pt  0  0  0  0  0  0  0  0  0  0
    3.9242   -3.9242    7.8484 Pt  0  0  0  0  0  0  0  0  0  0
   -1.9621   -1.9621    7.8484 Pt  0  0  0  0  0  0  0  0  0  0
    7.8484   -7.8484   -0.0000 Pt  0  0  0  0  0  0  0  0  0  0
    7.8484   -7.8484    3.9242 Pt  0  0  0  0  0  0  0  0  0  0
    5.8863   -9.8105   -0.0000 Pt  0  0  0  0  0  0  0  0  0  0
    5.8863   -9.8105    3.9242 Pt  0  0  0  0  0  0  0  0  0  0
    7.8484   -7.8484    7.8484 Pt  0  0  0  0  0  0  0  0  0  0
    5.8863   -9.8105    7.8484 Pt  0  0  0  0  0  0  0  0  0  0
  1 12  1  0  0  0
  1 13  1  0  0  0
  1 27  1  0  0  0
  2 12  1  0  0  0
  2 16  1  0  0  0
  2 19  1  0  0  0
  2 32  1  0  0  0
  7 44  1  0  0  0
  5 44  1  0  0  0
  8 43  1  0  0  0
  3 43  1  0  0  0
  3 44  1  0  0  0
  9 20  1  0  0  0
  9 11  1  0  0  0
  9 22  1  0  0  0
  9 28  1  0  0  0
  9 10  1  0  0  0
 10 20  1  0  0  0
 10 11  1  0  0  0
 14 36  1  0  0  0
 15 36  1  0  0  0
 17 16  1  0  0  0
 17  9  1  0  0  0
 17 14  1  0  0  0
 17 12  1  0  0  0
 17 18  1  0  0  0
 17 22  1  0  0  0
 17 31  1  0  0  0
 17 28  1  0  0  0
 17 19  1  0  0  0
 17 32  1  0  0  0
 17 20  1  0  0  0
 16 37  1  0  0  0
 16 19  1  0  0  0
 16 40  1  0  0  0
 16 32  1  0  0  0
 16 18  1  0  0  0
 16 31  1  0  0  0
 18 37  1  0  0  0
 18 20  1  0  0  0
 18 36  1  0  0  0
 18 19  1  0  0  0
 14 20  1  0  0  0
 14 18  1  0  0  0
 14 31  1  0  0  0
 14 15  1  0  0  0
 15 20  1  0  0  0
 21 12  1  0  0  0
 21  9  1  0  0  0
 21 22  1  0  0  0
 21 28  1  0  0  0
 21 13  1  0  0  0
 21 27  1  0  0  0
 21 11  1  0  0  0
 12 19  1  0  0  0
 12 13  1  0  0  0
 12 32  1  0  0  0
 12 27  1  0  0  0
 12 22  1  0  0  0
 12 28  1  0  0  0
 22 19  1  0  0  0
 22 11  1  0  0  0
 22 20  1  0  0  0
 22 13  1  0  0  0
  7 23  1  0  0  0
  7 29  1  0  0  0
  7 30  1  0  0  0
  7 24  1  0  0  0
  7  5  1  0  0  0
  7  3  1  0  0  0
  7 15  1  0  0  0
  7 10  1  0  0  0
  7  6  1  0  0  0
  7 20  1  0  0  0
 23 34  1  0  0  0
 23  6  1  0  0  0
 23 36  1  0  0  0
 23 20  1  0  0  0
 23 18  1  0  0  0
 23  5  1  0  0  0
 23 15  1  0  0  0
  5 34  1  0  0  0
  5 46  1  0  0  0
  5  6  1  0  0  0
  8 24  1  0  0  0
  8 29  1  0  0  0
  8  3  1  0  0  0
  8 10  1  0  0  0
  8  4  1  0  0  0
  8 11  1  0  0  0
 24  6  1  0  0  0
 24  4  1  0  0  0
 24 20  1  0  0  0
 24 11  1  0  0  0
 24 22  1  0  0  0
 24  3  1  0  0  0
 24 10  1  0  0  0
  3  6  1  0  0  0
  3  4  1  0  0  0
 25 24  1  0  0  0
 25 22  1  0  0  0
 25 13  1  0  0  0
 25  4  1  0  0  0
 25 11  1  0  0  0
 26 24  1  0  0  0
 26 23  1  0  0  0
 26 18  1  0  0  0
 26 22  1  0  0  0
 26 19  1  0  0  0
 26  6  1  0  0  0
 26 20  1  0  0  0
 29 44  1  0  0  0
 29 43  1  0  0  0
 28 32  1  0  0  0
 28 27  1  0  0  0
 30 44  1  0  0  0
 31 40  1  0  0  0
 31 32  1  0  0  0
 29  3  1  0  0  0
 29 10  1  0  0  0
 30 46  1  0  0  0
 30  5  1  0  0  0
 30 15  1  0  0  0
 33 16  1  0  0  0
 33 37  1  0  0  0
 33 40  1  0  0  0
 35 46  1  0  0  0
 38 14  1  0  0  0
 38 16  1  0  0  0
 38 18  1  0  0  0
 38 31  1  0  0  0
 38 37  1  0  0  0
 38 40  1  0  0  0
 38 36  1  0  0  0
 35 30  1  0  0  0
 35 23  1  0  0  0
 35  5  1  0  0  0
 35 15  1  0  0  0
 35 34  1  0  0  0
 35 36  1  0  0  0
 39 23  1  0  0  0
 39 18  1  0  0  0
 39 37  1  0  0  0
 39 34  1  0  0  0
 39 36  1  0  0  0
 41  3  1  0  0  0
 41  4  1  0  0  0
 41 43  1  0  0  0
 42  5  1  0  0  0
 42  3  1  0  0  0
 42  6  1  0  0  0
 42 44  1  0  0  0
 45  5  1  0  0  0
 45 34  1  0  0  0
 45 46  1  0  0  0
M  END
